Info: SIMULATION PARAMETERS:
Info: TIMESTEP               2
Info: NUMBER OF STEPS        0
Info: STEPS PER CYCLE        10
Info: PERIODIC CELL BASIS 1  100 0 0
Info: PERIODIC CELL BASIS 2  0 100 0
Info: PERIODIC CELL BASIS 3  0 0 100
Info: PERIODIC CELL CENTER   0 0 0
Info: WRAPPING WATERS AROUND PERIODIC BOUNDARIES ON OUTPUT.
Info: WRAPPING ALL CLUSTERS AROUND PERIODIC BOUNDARIES ON OUTPUT.
Info: FIRST LDB TIMESTEP     50
Info: LAST LDB TIMESTEP     -1
Info: HOM BACKGROUND SCALING 1
Info: PME BACKGROUND SCALING 1
Info: MIN ATOMS PER PATCH    40
Info: VELOCITY FILE          ../equilibration/MDequil.restart.vel
Info: CENTER OF MASS MOVING INITIALLY? NO
Info: REMOVING CENTER OF MASS DRIFT DURING SIMULATION
Info: DIELECTRIC             1
Info: EXCLUDE                SCALED ONE-FOUR
Info: 1-4 ELECTROSTATICS SCALED BY 1
Info: MODIFIED 1-4 VDW PARAMETERS WILL BE USED
Info: DCD FILENAME           MD.dcd
Info: DCD FREQUENCY          500000
Info: DCD FIRST STEP         500000
Info: DCD FILE WILL CONTAIN UNIT CELL DATA
Info: XST FILENAME           MD.xst
Info: XST FREQUENCY          50000
Info: NO VELOCITY DCD OUTPUT
Info: NO FORCE DCD OUTPUT
Info: OUTPUT FILENAME        MD
Info: BINARY OUTPUT FILES WILL BE USED
Info: RESTART FILENAME       MD.restart
Info: RESTART FREQUENCY      500000
Info: BINARY RESTART FILES WILL BE USED
Info: SWITCHING ACTIVE
Info: SWITCHING ON           10
Info: SWITCHING OFF          12
Info: PAIRLIST DISTANCE      14
Info: PAIRLIST SHRINK RATE   0.01
Info: PAIRLIST GROW RATE     0.01
Info: PAIRLIST TRIGGER       0.3
Info: PAIRLISTS PER CYCLE    2
Info: PAIRLISTS ENABLED
Info: MARGIN                 0
Info: HYDROGEN GROUP CUTOFF  2.5
Info: PATCH DIMENSION        16.5
Info: ENERGY OUTPUT STEPS    50000
Info: CROSSTERM ENERGY INCLUDED IN DIHEDRAL
Info: TIMING OUTPUT STEPS    500000
Info: PRESSURE OUTPUT STEPS  50000
Info: LANGEVIN DYNAMICS ACTIVE
Info: LANGEVIN TEMPERATURE   300
Info: LANGEVIN USING BBK INTEGRATOR
Info: LANGEVIN DAMPING COEFFICIENT IS 1 INVERSE PS
Info: LANGEVIN DYNAMICS NOT APPLIED TO HYDROGENS
Info: PARTICLE MESH EWALD (PME) ACTIVE
Info: PME TOLERANCE               1e-06
Info: PME EWALD COEFFICIENT       0.257952
Info: PME INTERPOLATION ORDER     4
Info: PME GRID DIMENSIONS         108 108 108
Info: PME MAXIMUM GRID SPACING    1
Info: FULL ELECTROSTATIC EVALUATION FREQUENCY      2
Info: USING VERLET I (r-RESPA) MTS SCHEME.
Info: C1 SPLITTING OF LONG RANGE ELECTROSTATICS
Info: PLACING ATOMS IN PATCHES BY HYDROGEN GROUPS
Info: RIGID BONDS TO HYDROGEN : ALL
Info:         ERROR TOLERANCE : 1e-08
Info:          MAX ITERATIONS : 100
Info: RIGID WATER USING SETTLE ALGORITHM
Info: RANDOM NUMBER SEED     1745411977
Info: USE HYDROGEN BONDS?    NO
Info: COORDINATE PDB         ../input/system.pdb
Info: STRUCTURE FILE         ../input/system.psf
Info: PARAMETER file: CHARMM format!
Info: PARAMETERS             ../input/par_all36m_prot.inp
Info: PARAMETERS             ../input/par_water_ions.inp
Info: USING ARITHMETIC MEAN TO COMBINE L-J SIGMA PARAMETERS
Info: BINARY COORDINATES     ../equilibration/MDequil.restart.coor
Info: SUMMARY OF PARAMETERS:
Info: 135 BONDS
Info: 365 ANGLES
Info: 706 DIHEDRAL
Info: 35 IMPROPER
Info: 6 CROSSTERM
Info: 68 VDW
Info: 3 VDW_PAIRS
Info: 0 NBTHOLE_PAIRS
Info: STRUCTURE SUMMARY:
Info: 2941 ATOMS
Info: 2377 BONDS
Info: 2827 ANGLES
Info: 3293 DIHEDRALS
Info: 212 IMPROPERS
Info: 74 CROSSTERMS
Info: 0 EXCLUSIONS
Info: 2339 RIGID BONDS
Info: 6484 DEGREES OF FREEDOM
Info: 1172 HYDROGEN GROUPS
Info: 4 ATOMS IN LARGEST HYDROGEN GROUP
Info: 1172 MIGRATION GROUPS
Info: 4 ATOMS IN LARGEST MIGRATION GROUP
Info: TOTAL MASS = 18833.6 amu
Info: TOTAL CHARGE = 1.0021e-06 e
Info: MASS DENSITY = 0.0312747 g/cm^3
Info: ATOM DENSITY = 0.002941 atoms/A^3
Info: ADDED 8468 IMPLICIT EXCLUSIONS
Info: NONBONDED TABLE R-SQUARED SPACING: 0.0625
Info: NONBONDED TABLE SIZE: 769 POINTS
Info: REMOVING COM VELOCITY -0.00178099 0.0147279 -0.0158531
Info: Updated CUDA force table with 4096 elements.
Info: Updated CUDA LJ table with 68 x 68 elements.
Info: Updated CUDA force table with 4096 elements.
Info: Updated CUDA LJ table with 68 x 68 elements.
Info: Found 213 unique exclusion lists needing 616 bytes
Info: Found 213 unique exclusion lists needing 616 bytes
TCL: Running for 50000000 steps
ETITLE: TS BOND ANGLE DIHED IMPRP ELECT VDW BOUNDARY MISC KINETIC TOTAL TEMP POTENTIAL TOTAL3 TEMPAVG PRESSURE GPRESSURE VOLUME PRESSAVG GPRESSAVG
ENERGY: 0 235.8439 712.4670 732.7738 45.0722 -9170.0260 294.8052 0.0000 0.0000 1880.3336 -5268.7304 291.8652 -7149.0639 -5256.0106 291.8652 3.0546 3.4029 1000000.0000 3.0546 3.4029
ENERGY: 1850000 247.8534 688.7117 707.9245 42.7036 -9010.9240 214.0679 0.0000 0.0000 1907.1910 -5202.4719 296.0340 -7109.6629 -5188.2191 299.8416 -35.5033 -35.4178 1000000.0000 0.2408 0.2398
ENERGY: 3700000 228.3524 688.8905 703.0070 44.0278 -9047.1155 275.0200 0.0000 0.0000 1965.8084 -5142.0093 305.1326 -7107.8178 -5129.4904 299.9256 -27.3974 -27.0968 1000000.0000 -0.1041 -0.1040
ENERGY: 5550000 209.4154 728.2720 721.2678 46.3555 -9139.9736 261.5611 0.0000 0.0000 1978.9434 -5194.1584 307.1714 -7173.1019 -5181.8490 299.4813 20.1903 19.9641 1000000.0000 -0.0084 -0.0071
ENERGY: 7400000 208.4892 713.3724 713.7346 49.4571 -9050.5554 293.4937 0.0000 0.0000 1960.5891 -5111.4192 304.3224 -7072.0084 -5099.2435 299.1570 59.1508 59.0043 1000000.0000 -0.2843 -0.2841
ENERGY: 9250000 218.5710 671.3531 709.6042 47.6909 -9020.7625 274.2360 0.0000 0.0000 1908.1517 -5191.1557 296.1831 -7099.3074 -5179.9166 299.3627 11.0997 11.3609 1000000.0000 0.0917 0.0917
