Info: SIMULATION PARAMETERS:
Info: TIMESTEP               2
Info: NUMBER OF STEPS        0
Info: STEPS PER CYCLE        10
Info: FIRST LDB TIMESTEP     50
Info: LAST LDB TIMESTEP     -1
Info: HOM BACKGROUND SCALING 1
Info: MIN ATOMS PER PATCH    40
Info: EMPTY PATCH LOAD       40 ATOMS
Info: INITIAL TEMPERATURE    300
Info: CENTER OF MASS MOVING INITIALLY? NO
Info: DIELECTRIC             1
Info: EXCLUDE                SCALED ONE-FOUR
Info: 1-4 ELECTROSTATICS SCALED BY 1
Info: MODIFIED 1-4 VDW PARAMETERS WILL BE USED
Info: DCD FILENAME           autoimd.dcd
Info: DCD FREQUENCY          1
Info: DCD FIRST STEP         1
Info: NO EXTENDED SYSTEM TRAJECTORY OUTPUT
Info: NO VELOCITY DCD OUTPUT
Info: NO FORCE DCD OUTPUT
Info: OUTPUT FILENAME        autoimd_out
Info: BINARY OUTPUT FILES WILL BE USED
Info: NO RESTART FILE
Info: SWITCHING ACTIVE
Info: SWITCHING ON           10
Info: SWITCHING OFF          12
Info: PAIRLIST DISTANCE      14
Info: PAIRLIST SHRINK RATE   0.01
Info: PAIRLIST GROW RATE     0.01
Info: PAIRLIST TRIGGER       0.3
Info: PAIRLISTS PER CYCLE    2
Info: PAIRLISTS ENABLED
Info: MARGIN                 0
Info: HYDROGEN GROUP CUTOFF  2.5
Info: PATCH DIMENSION        16.5
Info: OUTPUT ENERGY PRECISION 4
Info: CROSSTERM ENERGY INCLUDED IN DIHEDRAL
Info: TIMING OUTPUT STEPS    1000
Info: FIXED ATOMS ACTIVE
Info: INTERACTIVE MD ACTIVE
Info: INTERACTIVE MD PORT    3380
Info: INTERACTIVE MD FREQ    1
Info: WILL AWAIT INTERACTIVE MD CONNECTION
Info: LANGEVIN DYNAMICS ACTIVE
Info: LANGEVIN TEMPERATURE   300
Info: LANGEVIN USING BBK INTEGRATOR
Info: LANGEVIN DAMPING COEFFICIENT IS 3 INVERSE PS
Info: LANGEVIN DYNAMICS NOT APPLIED TO HYDROGENS
Info: USING VERLET I (r-RESPA) MTS SCHEME.
Info: C1 SPLITTING OF LONG RANGE ELECTROSTATICS
Info: PLACING ATOMS IN PATCHES BY HYDROGEN GROUPS
Info: RIGID BONDS TO HYDROGEN : ALL
Info:         ERROR TOLERANCE : 1e-08
Info:          MAX ITERATIONS : 100
Info: RIGID WATER USING SETTLE ALGORITHM
Info: RANDOM NUMBER SEED     1745317843
Info: USE HYDROGEN BONDS?    NO
Info: COORDINATE PDB         autoimd.pdb
Info: STRUCTURE FILE         autoimd.psf
Info: PARAMETER file: CHARMM format!
Info: PARAMETERS             par_all36m_prot.inp
Info: USING ARITHMETIC MEAN TO COMBINE L-J SIGMA PARAMETERS
Info: SUMMARY OF PARAMETERS:
Info: 132 BONDS
Info: 364 ANGLES
Info: 706 DIHEDRAL
Info: 35 IMPROPER
Info: 6 CROSSTERM
Info: 53 VDW
Info: 1 VDW_PAIRS
Info: 0 NBTHOLE_PAIRS
Info: STRUCTURE SUMMARY:
Info: 1231 ATOMS
Info: 1237 BONDS
Info: 2257 ANGLES
Info: 3293 DIHEDRALS
Info: 212 IMPROPERS
Info: 74 CROSSTERMS
Info: 0 EXCLUSIONS
Info: 0 FIXED ATOMS
Info: 629 RIGID BONDS
Info: 0 RIGID BONDS BETWEEN FIXED ATOMS
Info: 3064 DEGREES OF FREEDOM
Info: 602 HYDROGEN GROUPS
Info: 4 ATOMS IN LARGEST HYDROGEN GROUP
Info: 602 MIGRATION GROUPS
Info: 4 ATOMS IN LARGEST MIGRATION GROUP
Info: 0 HYDROGEN GROUPS WITH ALL ATOMS FIXED
Info: TOTAL MASS = 8564.87 amu
Info: TOTAL CHARGE = 1.0021e-06 e
Info: ADDED 6758 IMPLICIT EXCLUSIONS
Info: NONBONDED TABLE R-SQUARED SPACING: 0.0625
Info: NONBONDED TABLE SIZE: 769 POINTS
Info: ORIGINAL ATOMS MINMAX IS -14.866 -15.931 -15.746  15.819 16.449 20.545
Info: ADJUSTED ATOMS MINMAX IS -10.9239 -11.0494 -11.6064  11.6249 10.7844 11.3874
Info: REMOVING COM VELOCITY -0.130401 -0.0726526 -0.128675
Info: Interactive MD listening on port 3380.
TCL: Minimizing for 1000000 steps
Info: INTERACTIVE MD AWAITING CONNECTION
Info: IMD connection opened
Info: Pausing IMD
Info: Resuming IMD
Info: Pausing IMD
Info: Resuming IMD
Info: Pausing IMD
ETITLE: TS BOND ANGLE DIHED IMPRP ELECT VDW BOUNDARY MISC KINETIC TOTAL TEMP POTENTIAL TOTAL3 TEMPAVG
ENERGY: 0 263.6667 351.8893 709.0833 10.7698 -1524.3999 376.2149 0.0000 0.0000 0.0000 187.2240 0.0000 187.2240 187.2240 0.0000
ENERGY: 1887 67.9765 252.6575 674.1034 12.7327 -2500.4474 -285.9231 0.0000 0.0000 0.0000 -1778.9003 0.0000 -1778.9003 -1778.9003 0.0000
ENERGY: 3773 71.9955 255.8709 677.1586 14.7219 -2542.5152 -280.3672 0.0000 0.0000 0.0000 -1803.1354 0.0000 -1803.1354 -1803.1354 0.0000
ENERGY: 5660 80.7470 259.6406 675.9095 14.9143 -2587.7435 -276.9592 0.0000 0.0000 0.0000 -1833.4913 0.0000 -1833.4913 -1833.4913 0.0000
ENERGY: 7546 69.8593 253.1265 674.9702 14.2930 -2584.6035 -277.6259 0.0000 0.0000 0.0000 -1849.9804 0.0000 -1849.9804 -1849.9804 0.0000
ENERGY: 9433 69.8981 253.0158 674.8721 14.3273 -2584.3805 -277.8195 0.0000 0.0000 0.0000 -1850.0867 0.0000 -1850.0867 -1850.0867 0.0000
